/*--------------------------------*- C++ -*----------------------------------*\
| =========                 |                                                 |
| \\      /  F ield         | OpenFOAM: The Open Source CFD Toolbox           |
|  \\    /   O peration     | Version:  2506                                  |
|   \\  /    A nd           | Website:  www.openfoam.com                      |
|    \\/     M anipulation  |                                                 |
\*---------------------------------------------------------------------------*/
FoamFile
{
    version     2.0;
    format      ascii;
    arch        "LSB;label=32;scalar=64";
    class       polyBoundaryMesh;
    location    "constant/polyMesh";
    object      boundary;
}
// * * * * * * * * * * * * * * * * * * * * * * * * * * * * * * * * * * * * * //

7
(
    lowerWallStartup
    {
        type            symmetryPlane;
        inGroups        1(symmetryPlane);
        nFaces          2;
        startFace       2553280;
    }
    upperWall
    {
        type            wall;
        inGroups        1(wall);
        nFaces          1728;
        startFace       2553282;
    }
    lowerWall
    {
        type            wall;
        inGroups        1(wall);
        nFaces          2110;
        startFace       2555010;
    }
    back
    {
        type            empty;
        inGroups        1(empty);
        nFaces          1277952;
        startFace       2557120;
    }
    front
    {
        type            empty;
        inGroups        1(empty);
        nFaces          1277952;
        startFace       3835072;
    }
    inlet
    {
        type            inlet;
        nFaces          512;
        startFace       5113024;
    }
    outlet
    {
        type            inlet;
        nFaces          896;
        startFace       5113536;
    }
)

// ************************************************************************* //
