/*--------------------------------*- C++ -*----------------------------------*\
| =========                 |                                                 |
| \\      /  F ield         | OpenFOAM: The Open Source CFD Toolbox           |
|  \\    /   O peration     | Version:  2506                                  |
|   \\  /    A nd           | Website:  www.openfoam.com                      |
|    \\/     M anipulation  |                                                 |
\*---------------------------------------------------------------------------*/
FoamFile
{
    version     2.0;
    format      ascii;
    arch        "LSB;label=32;scalar=64";
    class       polyBoundaryMesh;
    location    "constant/polyMesh";
    object      boundary;
}
// * * * * * * * * * * * * * * * * * * * * * * * * * * * * * * * * * * * * * //

7
(
    lowerWallStartup
    {
        type            symmetryPlane;
        inGroups        1(symmetryPlane);
        nFaces          2;
        startFace       159088;
    }
    upperWall
    {
        type            wall;
        inGroups        1(wall);
        nFaces          432;
        startFace       159090;
    }
    lowerWall
    {
        type            wall;
        inGroups        1(wall);
        nFaces          526;
        startFace       159522;
    }
    back
    {
        type            empty;
        inGroups        1(empty);
        nFaces          79872;
        startFace       160048;
    }
    front
    {
        type            empty;
        inGroups        1(empty);
        nFaces          79872;
        startFace       239920;
    }
    inlet
    {
        type            inlet;
        nFaces          128;
        startFace       319792;
    }
    outlet
    {
        type            inlet;
        nFaces          224;
        startFace       319920;
    }
)

// ************************************************************************* //
