/*--------------------------------*- C++ -*----------------------------------*\
| =========                 |                                                 |
| \\      /  F ield         | OpenFOAM: The Open Source CFD Toolbox           |
|  \\    /   O peration     | Version:  2506                                  |
|   \\  /    A nd           | Website:  www.openfoam.com                      |
|    \\/     M anipulation  |                                                 |
\*---------------------------------------------------------------------------*/
FoamFile
{
    version     2.0;
    format      ascii;
    arch        "LSB;label=32;scalar=64";
    class       polyBoundaryMesh;
    location    "constant/polyMesh";
    object      boundary;
}
// * * * * * * * * * * * * * * * * * * * * * * * * * * * * * * * * * * * * * //

7
(
    lowerWallStartup
    {
        type            symmetryPlane;
        inGroups        1(symmetryPlane);
        nFaces          2;
        startFace       637664;
    }
    upperWall
    {
        type            wall;
        inGroups        1(wall);
        nFaces          864;
        startFace       637666;
    }
    lowerWall
    {
        type            wall;
        inGroups        1(wall);
        nFaces          1054;
        startFace       638530;
    }
    back
    {
        type            empty;
        inGroups        1(empty);
        nFaces          319488;
        startFace       639584;
    }
    front
    {
        type            empty;
        inGroups        1(empty);
        nFaces          319488;
        startFace       959072;
    }
    inlet
    {
        type            inlet;
        nFaces          256;
        startFace       1278560;
    }
    outlet
    {
        type            inlet;
        nFaces          448;
        startFace       1278816;
    }
)

// ************************************************************************* //
